tests/data/power_flow/pandapower/components/symmetric/three_winding_transformer/sym_output_batch.json
{
  "version": "1.0",
  "type": "sym_output",
  "is_batch": true,
  "attributes": {},
  "data": [
    {
      "node": [
        {
          "id": 1,
          "u_pu": 0.9999999551315109,
          "u": 137999.99380814852,
          "u_angle": -5.488210325456181e-08
        },
        {
          "id": 2,
          "u_pu": 1.0869676929016086,
          "u": 75000.77081021099,
          "u_angle": 0.5236134683018021
        },
        {
          "id": 3,
          "u_pu": 1.0869676929016083,
          "u": 15000.154162042196,
          "u_angle": 0.5236134683018022
        }
      ],
      "three_winding_transformer": [
        {
          "id": 4,
          "loading": 0.001181480471889959,
          "p_1": 59074.31253828018,
          "q_1": 39184.838621282404,
          "i_1": 0.2965774343887005,
          "p_2": -6.178853223510507e-08,
          "q_2": 1.0701724588638337e-07,
          "i_2": 9.5126270089699e-13,
          "p_3": 6.178853223510507e-08,
          "q_3": -1.0701724588638333e-07,
          "i_3": 4.756313504484951e-12
        }
      ]
    },
    {
      "node": [
        {
          "id": 1,
          "u_pu": 0.9999999570204968,
          "u": 137999.99406882856,
          "u_angle": -5.257153947510249e-08
        },
        {
          "id": 2,
          "u_pu": 1.063840722721792,
          "u": 73405.00986780366,
          "u_angle": 0.523613470612366
        },
        {
          "id": 3,
          "u_pu": 1.0638407227217923,
          "u": 14681.001973560735,
          "u_angle": 0.5236134706123657
        }
      ],
      "three_winding_transformer": [
        {
          "id": 4,
          "loading": 0.0011317395599586915,
          "p_1": 56587.25477739026,
          "q_1": 37535.1375437802,
          "i_1": 0.28409137725127986,
          "p_2": 3.023694148466247e-08,
          "q_2": -5.237014163303688e-08,
          "i_2": 4.756313504484951e-13,
          "p_3": -1.9170341410475252e-08,
          "q_3": 9.36736831918866e-08,
          "i_3": 3.760195984997484e-12
        }
      ]
    },
    {
      "node": [
        {
          "id": 1,
          "u_pu": 0.9999999587926549,
          "u": 137999.99431338636,
          "u_angle": -5.04038762637355e-08
        },
        {
          "id": 2,
          "u_pu": 1.0416773761777725,
          "u": 71875.7389562663,
          "u_angle": 0.523613472780029
        },
        {
          "id": 3,
          "u_pu": 1.0416773761777722,
          "u": 14375.147791253257,
          "u_angle": 0.5236134727800292
        }
      ],
      "three_winding_transformer": [
        {
          "id": 4,
          "loading": 0.0010850749552206247,
          "p_1": 54254.013127725724,
          "q_1": 35987.46490023869,
          "i_1": 0.27237754056636787,
          "p_2": 0.0,
          "q_2": 0.0,
          "i_2": 0.0,
          "p_3": 5.524655388854544e-08,
          "q_3": -3.647559435870055e-08,
          "i_3": 2.65886007958215e-12
        }
      ]
    },
    {
      "node": [
        {
          "id": 1,
          "u_pu": 0.9999999604574247,
          "u": 137999.9945431246,
          "u_angle": -4.836756813762414e-08
        },
        {
          "id": 2,
          "u_pu": 1.0204186559137531,
          "u": 70408.88725804897,
          "u_angle": 0.5236134748163374
        },
        {
          "id": 3,
          "u_pu": 1.0204186559137536,
          "u": 14081.777451609802,
          "u_angle": 0.5236134748163372
        }
      ],
      "three_winding_transformer": [
        {
          "id": 4,
          "loading": 0.001041238111757312,
          "p_1": 52062.16021058374,
          "q_1": 34533.577479908876,
          "i_1": 0.26137353386302686,
          "p_2": 8.312185427839478e-08,
          "q_2": -8.596377930552015e-08,
          "i_2": 9.805391483771576e-13,
          "p_3": 2.122980396381372e-08,
          "q_3": 7.923536580100409e-08,
          "i_3": 3.3632215324704603e-12
        }
      ]
    },
    {
      "node": [
        {
          "id": 1,
          "u_pu": 0.9999999620233108,
          "u": 137999.99475921688,
          "u_angle": -4.64522124982361e-08
        },
        {
          "id": 2,
          "u_pu": 1.0000102843613505,
          "u": 69000.7096209332,
          "u_angle": 0.5236134767316929
        },
        {
          "id": 3,
          "u_pu": 1.0000102843613505,
          "u": 13800.141924186639,
          "u_angle": 0.5236134767316928
        }
      ],
      "three_winding_transformer": [
        {
          "id": 4,
          "loading": 0.0010000050851882336,
          "p_1": 50000.49882160645,
          "q_1": 33166.04786583574,
          "i_1": 0.2510231421958197,
          "p_2": -3.808758835315694e-09,
          "q_2": 6.343929592691402e-08,
          "i_2": 5.317720159164299e-13,
          "p_3": 1.0402603884193392e-08,
          "q_3": 3.8825329323211554e-08,
          "i_3": 1.6816107662352306e-12
        }
      ]
    },
    {
      "node": [
        {
          "id": 1,
          "u_pu": 0.9999999634979918,
          "u": 137999.99496272288,
          "u_angle": -4.464841654624962e-08
        },
        {
          "id": 2,
          "u_pu": 0.9804022410157534,
          "u": 67647.75463008697,
          "u_angle": 0.5236134785354888
        },
        {
          "id": 3,
          "u_pu": 0.9804022410157534,
          "u": 13529.550926017397,
          "u_angle": 0.5236134785354887
        }
      ],
      "three_winding_transformer": [
        {
          "id": 4,
          "loading": 0.0009611736721284816,
          "p_1": 48058.91865627196,
          "q_1": 31878.169934368165,
          "i_1": 0.24127560808589638,
          "p_2": -4.826267963601246e-08,
          "q_2": -2.786541722522586e-08,
          "i_2": 4.756313504484951e-13,
          "p_3": -7.612809686123832e-08,
          "q_3": 2.0397262410786612e-08,
          "i_3": 3.3632215324704615e-12
        }
      ]
    },
    {
      "node": [
        {
          "id": 1,
          "u_pu": 0.9999999648884088,
          "u": 137999.99515460042,
          "u_angle": -4.2947681268180845e-08
        },
        {
          "id": 2,
          "u_pu": 0.9615483531069576,
          "u": 66346.83636438008,
          "u_angle": 0.5236134802362222
        },
        {
          "id": 3,
          "u_pu": 0.9615483531069579,
          "u": 13269.36727287602,
          "u_angle": 0.5236134802362223
        }
      ],
      "three_winding_transformer": [
        {
          "id": 4,
          "loading": 0.0009245609898850878,
          "p_1": 46228.27228508022,
          "q_1": 30663.883120028022,
          "i_1": 0.23208502397164937,
          "p_2": -4.733455120103244e-08,
          "q_2": -2.7329543935680792e-08,
          "i_2": 4.75631350448495e-13,
          "p_3": 1.0002503632675822e-08,
          "q_3": 3.7332047568356624e-08,
          "i_3": 1.6816107662352306e-12
        }
      ]
    },
    {
      "node": [
        {
          "id": 1,
          "u_pu": 0.9999999662008815,
          "u": 137999.99533572164,
          "u_angle": -4.134230393536602e-08
        },
        {
          "id": 2,
          "u_pu": 0.9434059325839288,
          "u": 65095.00934829109,
          "u_angle": 0.5236134818416015
        },
        {
          "id": 3,
          "u_pu": 0.9434059325839287,
          "u": 13019.001869658217,
          "u_angle": 0.5236134818416013
        }
      ],
      "three_winding_transformer": [
        {
          "id": 4,
          "loading": 0.0008900009732490922,
          "p_1": 44500.26632201043,
          "q_1": 29517.66477643068,
          "i_1": 0.22340970384861286,
          "p_2": -2.6813892272930526e-08,
          "q_2": 4.6441446479076033e-08,
          "i_2": 4.756313504484951e-13,
          "p_3": -2.3220723239538017e-08,
          "q_3": -1.3406946136465258e-08,
          "i_3": 1.1890783761212376e-12
        }
      ]
    },
    {
      "node": [
        {
          "id": 1,
          "u_pu": 0.99999996744111,
          "u": 137999.99550687318,
          "u_angle": -3.982528529166713e-08
        },
        {
          "id": 2,
          "u_pu": 0.9259354534992644,
          "u": 63889.546291449245,
          "u_angle": 0.5236134833586201
        },
        {
          "id": 3,
          "u_pu": 0.9259354534992644,
          "u": 12777.909258289848,
          "u_angle": 0.5236134833586199
        }
      ],
      "three_winding_transformer": [
        {
          "id": 4,
          "loading": 0.000857343189313861,
          "p_1": 42867.36913870318,
          "q_1": 28434.540658721107,
          "i_1": 0.21521188576282096,
          "p_2": 0.0,
          "q_2": 0.0,
          "i_2": 0.0,
          "p_3": -3.594937926157101e-08,
          "q_3": 9.632040447462946e-09,
          "i_3": 1.6816107662352302e-12
        }
      ]
    },
    {
      "node": [
        {
          "id": 1,
          "u_pu": 0.9999999686143065,
          "u": 137999.9956687743,
          "u_angle": -3.839025853543182e-08
        },
        {
          "id": 2,
          "u_pu": 0.9091002645021947,
          "u": 62727.91825065143,
          "u_angle": 0.5236134847936469
        },
        {
          "id": 3,
          "u_pu": 0.9091002645021947,
          "u": 12545.583650130287,
          "u_angle": 0.5236134847936469
        }
      ],
      "three_winding_transformer": [
        {
          "id": 4,
          "loading": 0.0008264504945174143,
          "p_1": 41322.726843526216,
          "q_1": 27409.95727491015,
          "i_1": 0.20745714367706827,
          "p_2": 0.0,
          "q_2": 0.0,
          "i_2": 0.0,
          "p_3": 3.529575423906768e-08,
          "q_3": -9.456912399771713e-09,
          "i_3": 1.6816107662352302e-12
        }
      ]
    }
  ]
}
